model_output_tests/dss/WSU/PV_NN_100_GEN.dss
New Generator.PV_1 phases=1 Bus1=SX2000402A.1 kV=0.12 kw=6.5463 kVar=0.65 mode=7
New Generator.PV_2 phases=1 Bus1=SX2000402A.2 kV=0.12 kw=4.7004 kVar=0.47 mode=7
New Generator.PV_3 phases=1 Bus1=SX2000403A.1 kV=0.12 kw=5.1387 kVar=0.51 mode=7
New Generator.PV_4 phases=1 Bus1=SX2000403A.2 kV=0.12 kw=7.4239 kVar=0.74 mode=7
New Generator.PV_5 phases=1 Bus1=SX2000404A.1 kV=0.12 kw=6.2807 kVar=0.63 mode=7
New Generator.PV_6 phases=1 Bus1=SX2000404A.2 kV=0.12 kw=3.4288 kVar=0.34 mode=7
New Generator.PV_7 phases=1 Bus1=SX2000405A.1 kV=0.12 kw=6.5463 kVar=0.65 mode=7
New Generator.PV_8 phases=1 Bus1=SX2000405A.2 kV=0.12 kw=8.3805 kVar=0.84 mode=7
New Generator.PV_9 phases=1 Bus1=SX2000406A.1 kV=0.12 kw=9.3478 kVar=0.93 mode=7
New Generator.PV_10 phases=1 Bus1=SX2000406A.2 kV=0.12 kw=3.2499 kVar=0.32 mode=7
New Generator.PV_11 phases=1 Bus1=SX2000407A.1 kV=0.12 kw=4.4299 kVar=0.44 mode=7
New Generator.PV_12 phases=1 Bus1=SX2000407A.2 kV=0.12 kw=7.4879 kVar=0.75 mode=7
New Generator.PV_13 phases=1 Bus1=SX2000408A.1 kV=0.12 kw=6.5463 kVar=0.65 mode=7
New Generator.PV_14 phases=1 Bus1=SX2000408A.2 kV=0.12 kw=5.8942 kVar=0.59 mode=7
New Generator.PV_15 phases=1 Bus1=SX2000409A.1 kV=0.12 kw=4.4938 kVar=0.45 mode=7
New Generator.PV_16 phases=1 Bus1=SX2000409A.2 kV=0.12 kw=8.4873 kVar=0.85 mode=7
New Generator.PV_17 phases=1 Bus1=SX2000410A.1 kV=0.12 kw=9.1749 kVar=0.92 mode=7
New Generator.PV_18 phases=1 Bus1=SX2000410A.2 kV=0.12 kw=5.3169 kVar=0.53 mode=7
New Generator.PV_19 phases=1 Bus1=SX2000411A.1 kV=0.12 kw=6.4936 kVar=0.65 mode=7
New Generator.PV_20 phases=1 Bus1=SX2000411A.2 kV=0.12 kw=3.488 kVar=0.35 mode=7
New Generator.PV_21 phases=1 Bus1=SX2000412A.1 kV=0.12 kw=10.4376 kVar=1.04 mode=7
New Generator.PV_22 phases=1 Bus1=SX2000412A.2 kV=0.12 kw=9.1796 kVar=0.92 mode=7
New Generator.PV_23 phases=1 Bus1=SX2000413A.1 kV=0.12 kw=6.3488 kVar=0.63 mode=7
New Generator.PV_24 phases=1 Bus1=SX2000413A.2 kV=0.12 kw=4.2837 kVar=0.43 mode=7
New Generator.PV_25 phases=1 Bus1=SX2000414A.1 kV=0.12 kw=3.349 kVar=0.33 mode=7
New Generator.PV_26 phases=1 Bus1=SX2000414A.2 kV=0.12 kw=7.2389 kVar=0.72 mode=7
New Generator.PV_27 phases=1 Bus1=SX2000415A.1 kV=0.12 kw=5.8348 kVar=0.58 mode=7
New Generator.PV_28 phases=1 Bus1=SX2000415A.2 kV=0.12 kw=4.9387 kVar=0.49 mode=7
New Generator.PV_29 phases=1 Bus1=SX2000702B.1 kV=0.12 kw=5.8234 kVar=0.58 mode=7
New Generator.PV_30 phases=1 Bus1=SX2000702B.2 kV=0.12 kw=4.7004 kVar=0.47 mode=7
New Generator.PV_31 phases=1 Bus1=SX2000703B.1 kV=0.12 kw=5.1387 kVar=0.51 mode=7
New Generator.PV_32 phases=1 Bus1=SX2000703B.2 kV=0.12 kw=4.3988 kVar=0.44 mode=7
New Generator.PV_33 phases=1 Bus1=SX2000704B.1 kV=0.12 kw=6.8349 kVar=0.68 mode=7
New Generator.PV_34 phases=1 Bus1=SX2000704B.2 kV=0.12 kw=3.3894 kVar=0.34 mode=7
New Generator.PV_35 phases=1 Bus1=SX2000705B.1 kV=0.12 kw=5.2938 kVar=0.53 mode=7
New Generator.PV_36 phases=1 Bus1=SX2000705B.2 kV=0.12 kw=4.3786 kVar=0.44 mode=7
New Generator.PV_37 phases=1 Bus1=SX2000706B.1 kV=0.12 kw=5.3987 kVar=0.54 mode=7
New Generator.PV_38 phases=1 Bus1=SX2000706B.2 kV=0.12 kw=6.3875 kVar=0.64 mode=7
New Generator.PV_39 phases=1 Bus1=SX2000707B.1 kV=0.12 kw=6.5463 kVar=0.65 mode=7
New Generator.PV_40 phases=1 Bus1=SX2000707B.2 kV=0.12 kw=3.3488 kVar=0.33 mode=7
New Generator.PV_41 phases=1 Bus1=SX2000708B.1 kV=0.12 kw=7.8347 kVar=0.78 mode=7
New Generator.PV_42 phases=1 Bus1=SX2000708B.2 kV=0.12 kw=4.386 kVar=0.44 mode=7
New Generator.PV_43 phases=1 Bus1=SX2000709B.1 kV=0.12 kw=4.014 kVar=0.4 mode=7
New Generator.PV_44 phases=1 Bus1=SX2000709B.2 kV=0.12 kw=4.7004 kVar=0.47 mode=7
New Generator.PV_45 phases=1 Bus1=SX2000710B.1 kV=0.12 kw=5.8789 kVar=0.59 mode=7
New Generator.PV_46 phases=1 Bus1=SX2000710B.2 kV=0.12 kw=4.5731 kVar=0.46 mode=7
New Generator.PV_47 phases=1 Bus1=SX2000711B.1 kV=0.12 kw=2.9426 kVar=0.29 mode=7
New Generator.PV_48 phases=1 Bus1=SX2000711B.2 kV=0.12 kw=4.0985 kVar=0.41 mode=7
New Generator.PV_49 phases=1 Bus1=SX2000712B.1 kV=0.12 kw=6.8095 kVar=0.68 mode=7
New Generator.PV_50 phases=1 Bus1=SX2000712B.2 kV=0.12 kw=4.3898 kVar=0.44 mode=7
New Generator.PV_51 phases=1 Bus1=SX2000713B.1 kV=0.12 kw=5.9315 kVar=0.59 mode=7
New Generator.PV_52 phases=1 Bus1=SX2000713B.2 kV=0.12 kw=6.8476 kVar=0.68 mode=7
New Generator.PV_53 phases=1 Bus1=SX2000714B.1 kV=0.12 kw=4.348 kVar=0.43 mode=7
New Generator.PV_54 phases=1 Bus1=SX2000714B.2 kV=0.12 kw=4.7004 kVar=0.47 mode=7
New Generator.PV_55 phases=1 Bus1=SX2000715B.1 kV=0.12 kw=6.5463 kVar=0.65 mode=7
New Generator.PV_56 phases=1 Bus1=SX2000715B.2 kV=0.12 kw=4.7004 kVar=0.47 mode=7
New Generator.PV_57 phases=1 Bus1=SX2000902C.1 kV=0.12 kw=6.5463 kVar=0.65 mode=7
New Generator.PV_58 phases=1 Bus1=SX2000902C.2 kV=0.12 kw=4.7004 kVar=0.47 mode=7
New Generator.PV_59 phases=1 Bus1=SX2000903C.1 kV=0.12 kw=5.1387 kVar=0.51 mode=7
New Generator.PV_60 phases=1 Bus1=SX2000903C.2 kV=0.12 kw=7.4239 kVar=0.74 mode=7
New Generator.PV_61 phases=1 Bus1=SX2000904C.1 kV=0.12 kw=6.2807 kVar=0.63 mode=7
New Generator.PV_62 phases=1 Bus1=SX2000904C.2 kV=0.12 kw=3.4288 kVar=0.34 mode=7
New Generator.PV_63 phases=1 Bus1=SX2000905C.1 kV=0.12 kw=6.5463 kVar=0.65 mode=7
New Generator.PV_64 phases=1 Bus1=SX2000905C.2 kV=0.12 kw=4.7004 kVar=0.47 mode=7
New Generator.PV_65 phases=1 Bus1=SX2000906C.1 kV=0.12 kw=6.5463 kVar=0.65 mode=7
New Generator.PV_66 phases=1 Bus1=SX2000906C.2 kV=0.12 kw=4.7004 kVar=0.47 mode=7
New Generator.PV_67 phases=1 Bus1=SX2000907C.1 kV=0.12 kw=6.5463 kVar=0.65 mode=7
New Generator.PV_68 phases=1 Bus1=SX2000907C.2 kV=0.12 kw=4.7004 kVar=0.47 mode=7
New Generator.PV_69 phases=1 Bus1=SX2000908C.1 kV=0.12 kw=6.5463 kVar=0.65 mode=7
New Generator.PV_70 phases=1 Bus1=SX2000908C.2 kV=0.12 kw=4.7004 kVar=0.47 mode=7
New Generator.PV_71 phases=1 Bus1=SX2000909C.1 kV=0.12 kw=6.5463 kVar=0.65 mode=7
New Generator.PV_72 phases=1 Bus1=SX2000909C.2 kV=0.12 kw=4.7004 kVar=0.47 mode=7
New Generator.PV_73 phases=1 Bus1=SX2000910C.1 kV=0.12 kw=6.5463 kVar=0.65 mode=7
New Generator.PV_74 phases=1 Bus1=SX2000910C.2 kV=0.12 kw=4.7004 kVar=0.47 mode=7
New Generator.PV_75 phases=1 Bus1=SX2000911C.1 kV=0.12 kw=6.5463 kVar=0.65 mode=7
New Generator.PV_76 phases=1 Bus1=SX2000911C.2 kV=0.12 kw=4.7004 kVar=0.47 mode=7
New Generator.PV_77 phases=1 Bus1=SX2000912C.1 kV=0.12 kw=6.5463 kVar=0.65 mode=7
New Generator.PV_78 phases=1 Bus1=SX2000912C.2 kV=0.12 kw=4.7004 kVar=0.47 mode=7
New Generator.PV_79 phases=1 Bus1=SX2000913C.1 kV=0.12 kw=6.5463 kVar=0.65 mode=7
New Generator.PV_80 phases=1 Bus1=SX2000913C.2 kV=0.12 kw=4.7004 kVar=0.47 mode=7
New Generator.PV_81 phases=1 Bus1=SX2000914C.1 kV=0.12 kw=6.5463 kVar=0.65 mode=7
New Generator.PV_82 phases=1 Bus1=SX2000914C.2 kV=0.12 kw=4.7004 kVar=0.47 mode=7
New Generator.PV_83 phases=1 Bus1=SX2000915C.1 kV=0.12 kw=6.5463 kVar=0.65 mode=7
New Generator.PV_84 phases=1 Bus1=SX2000915C.2 kV=0.12 kw=4.7004 kVar=0.47 mode=7
New Generator.PV_85 phases=1 Bus1=SX2001002B.1 kV=0.12 kw=6.5463 kVar=0.65 mode=7
New Generator.PV_86 phases=1 Bus1=SX2001002B.2 kV=0.12 kw=4.7004 kVar=0.47 mode=7
New Generator.PV_87 phases=1 Bus1=SX2001003B.1 kV=0.12 kw=5.1387 kVar=0.51 mode=7
New Generator.PV_88 phases=1 Bus1=SX2001003B.2 kV=0.12 kw=7.4239 kVar=0.74 mode=7
New Generator.PV_89 phases=1 Bus1=SX2001004B.1 kV=0.12 kw=6.2807 kVar=0.63 mode=7
New Generator.PV_90 phases=1 Bus1=SX2001004B.2 kV=0.12 kw=3.4288 kVar=0.34 mode=7
New Generator.PV_91 phases=1 Bus1=SX2001005B.1 kV=0.12 kw=6.8895 kVar=0.69 mode=7
New Generator.PV_92 phases=1 Bus1=SX2001005B.2 kV=0.12 kw=4.1909 kVar=0.42 mode=7
New Generator.PV_93 phases=1 Bus1=SX2001006B.1 kV=0.12 kw=5.3705 kVar=0.54 mode=7
New Generator.PV_94 phases=1 Bus1=SX2001006B.2 kV=0.12 kw=4.3875 kVar=0.44 mode=7
New Generator.PV_95 phases=1 Bus1=SX2001007B.1 kV=0.12 kw=6.1348 kVar=0.61 mode=7
New Generator.PV_96 phases=1 Bus1=SX2001007B.2 kV=0.12 kw=3.2341 kVar=0.32 mode=7
New Generator.PV_97 phases=1 Bus1=SX2001008B.1 kV=0.12 kw=5.4099 kVar=0.54 mode=7
New Generator.PV_98 phases=1 Bus1=SX2001008B.2 kV=0.12 kw=7.3085 kVar=0.73 mode=7
New Generator.PV_99 phases=1 Bus1=SX2001009B.1 kV=0.12 kw=8.4897 kVar=0.85 mode=7
New Generator.PV_100 phases=1 Bus1=SX2001009B.2 kV=0.12 kw=5.4809 kVar=0.55 mode=7
New Generator.PV_101 phases=1 Bus1=SX2001010B.1 kV=0.12 kw=9.4098 kVar=0.94 mode=7
New Generator.PV_102 phases=1 Bus1=SX2001010B.2 kV=0.12 kw=7.4894 kVar=0.75 mode=7
New Generator.PV_103 phases=1 Bus1=SX2001011B.1 kV=0.12 kw=4.3897 kVar=0.44 mode=7
New Generator.PV_104 phases=1 Bus1=SX2001011B.2 kV=0.12 kw=3.085 kVar=0.31 mode=7
New Generator.PV_105 phases=1 Bus1=SX2001012B.1 kV=0.12 kw=6.3848 kVar=0.64 mode=7
New Generator.PV_106 phases=1 Bus1=SX2001012B.2 kV=0.12 kw=7.3746 kVar=0.74 mode=7
New Generator.PV_107 phases=1 Bus1=SX2001013B.1 kV=0.12 kw=8.3273 kVar=0.83 mode=7
New Generator.PV_108 phases=1 Bus1=SX2001013B.2 kV=0.12 kw=9.2378 kVar=0.92 mode=7
New Generator.PV_109 phases=1 Bus1=SX2001014B.1 kV=0.12 kw=14.4796 kVar=1.45 mode=7
New Generator.PV_110 phases=1 Bus1=SX2001014B.2 kV=0.12 kw=13.8472 kVar=1.38 mode=7
New Generator.PV_111 phases=1 Bus1=SX2001015B.1 kV=0.12 kw=12.8674 kVar=1.29 mode=7
New Generator.PV_112 phases=1 Bus1=SX2001015B.2 kV=0.12 kw=11.3479 kVar=1.13 mode=7
New Generator.PV_113 phases=1 Bus1=SX2001202C.1 kV=0.12 kw=6.4857 kVar=0.65 mode=7
New Generator.PV_114 phases=1 Bus1=SX2001202C.2 kV=0.12 kw=5.9385 kVar=0.59 mode=7
New Generator.PV_115 phases=1 Bus1=SX2001203C.1 kV=0.12 kw=7.9847 kVar=0.8 mode=7
New Generator.PV_116 phases=1 Bus1=SX2001203C.2 kV=0.12 kw=8.0395 kVar=0.8 mode=7
New Generator.PV_117 phases=1 Bus1=SX2001204C.1 kV=0.12 kw=5.0959 kVar=0.51 mode=7
New Generator.PV_118 phases=1 Bus1=SX2001204C.2 kV=0.12 kw=7.8496 kVar=0.78 mode=7
New Generator.PV_119 phases=1 Bus1=SX2001205C.1 kV=0.12 kw=3.8093 kVar=0.38 mode=7
New Generator.PV_120 phases=1 Bus1=SX2001205C.2 kV=0.12 kw=4.7539 kVar=0.48 mode=7
New Generator.PV_121 phases=1 Bus1=SX2001206C.1 kV=0.12 kw=6.0939 kVar=0.61 mode=7
New Generator.PV_122 phases=1 Bus1=SX2001206C.2 kV=0.12 kw=4.4375 kVar=0.44 mode=7
New Generator.PV_123 phases=1 Bus1=SX2001207C.1 kV=0.12 kw=5.4089 kVar=0.54 mode=7
New Generator.PV_124 phases=1 Bus1=SX2001207C.2 kV=0.12 kw=3.4375 kVar=0.34 mode=7
New Generator.PV_125 phases=1 Bus1=SX2001208C.1 kV=0.12 kw=6.3875 kVar=0.64 mode=7
New Generator.PV_126 phases=1 Bus1=SX2001208C.2 kV=0.12 kw=5.4959 kVar=0.55 mode=7
New Generator.PV_127 phases=1 Bus1=SX2001209C.1 kV=0.12 kw=7.9458 kVar=0.79 mode=7
New Generator.PV_128 phases=1 Bus1=SX2001209C.2 kV=0.12 kw=5.9846 kVar=0.6 mode=7
New Generator.PV_129 phases=1 Bus1=SX2001210C.1 kV=0.12 kw=3.4896 kVar=0.35 mode=7
New Generator.PV_130 phases=1 Bus1=SX2001210C.2 kV=0.12 kw=9.9486 kVar=0.99 mode=7
New Generator.PV_131 phases=1 Bus1=SX2001211C.1 kV=0.12 kw=10.9857 kVar=1.1 mode=7
New Generator.PV_132 phases=1 Bus1=SX2001211C.2 kV=0.12 kw=12.4306 kVar=1.24 mode=7
New Generator.PV_133 phases=1 Bus1=SX2001212C.1 kV=0.12 kw=9.4853 kVar=0.95 mode=7
New Generator.PV_134 phases=1 Bus1=SX2001212C.2 kV=0.12 kw=8.3948 kVar=0.84 mode=7
New Generator.PV_135 phases=1 Bus1=SX2001213C.1 kV=0.12 kw=9.4985 kVar=0.95 mode=7
New Generator.PV_136 phases=1 Bus1=SX2001213C.2 kV=0.12 kw=8.5809 kVar=0.86 mode=7
New Generator.PV_137 phases=1 Bus1=SX2001214C.1 kV=0.12 kw=7.3848 kVar=0.74 mode=7
New Generator.PV_138 phases=1 Bus1=SX2001214C.2 kV=0.12 kw=9.4949 kVar=0.95 mode=7
New Generator.PV_139 phases=1 Bus1=SX2001215C.1 kV=0.12 kw=10.3499 kVar=1.03 mode=7
New Generator.PV_140 phases=1 Bus1=SX2001215C.2 kV=0.12 kw=11.035 kVar=1.1 mode=7
New Generator.PV_141 phases=1 Bus1=SX2001302A.1 kV=0.12 kw=4.3299 kVar=0.43 mode=7
New Generator.PV_142 phases=1 Bus1=SX2001302A.2 kV=0.12 kw=4.4896 kVar=0.45 mode=7
New Generator.PV_143 phases=1 Bus1=SX2001303A.1 kV=0.12 kw=5.4939 kVar=0.55 mode=7
New Generator.PV_144 phases=1 Bus1=SX2001303A.2 kV=0.12 kw=7.4239 kVar=0.74 mode=7
New Generator.PV_145 phases=1 Bus1=SX2001304A.1 kV=0.12 kw=6.2807 kVar=0.63 mode=7
New Generator.PV_146 phases=1 Bus1=SX2001304A.2 kV=0.12 kw=3.3449 kVar=0.33 mode=7
New Generator.PV_147 phases=1 Bus1=SX2001305A.1 kV=0.12 kw=6.5463 kVar=0.65 mode=7
New Generator.PV_148 phases=1 Bus1=SX2001305A.2 kV=0.12 kw=4.3095 kVar=0.43 mode=7
New Generator.PV_149 phases=1 Bus1=SX2001306A.1 kV=0.12 kw=5.9835 kVar=0.6 mode=7
New Generator.PV_150 phases=1 Bus1=SX2001306A.2 kV=0.12 kw=3.4893 kVar=0.35 mode=7
New Generator.PV_151 phases=1 Bus1=SX2001307A.1 kV=0.12 kw=6.4959 kVar=0.65 mode=7
New Generator.PV_152 phases=1 Bus1=SX2001307A.2 kV=0.12 kw=7.4854 kVar=0.75 mode=7
New Generator.PV_153 phases=1 Bus1=SX2001308A.1 kV=0.12 kw=6.5463 kVar=0.65 mode=7
New Generator.PV_154 phases=1 Bus1=SX2001308A.2 kV=0.12 kw=8.095 kVar=0.81 mode=7
New Generator.PV_155 phases=1 Bus1=SX2001309A.1 kV=0.12 kw=3.5463 kVar=0.35 mode=7
New Generator.PV_156 phases=1 Bus1=SX2001309A.2 kV=0.12 kw=4.7004 kVar=0.47 mode=7
New Generator.PV_157 phases=1 Bus1=SX2001310A.1 kV=0.12 kw=8.8499 kVar=0.88 mode=7
New Generator.PV_158 phases=1 Bus1=SX2001310A.2 kV=0.12 kw=9.2983 kVar=0.93 mode=7
New Generator.PV_159 phases=1 Bus1=SX2001311A.1 kV=0.12 kw=8.0948 kVar=0.81 mode=7
New Generator.PV_160 phases=1 Bus1=SX2001311A.2 kV=0.12 kw=7.9486 kVar=0.79 mode=7
New Generator.PV_161 phases=1 Bus1=SX2001312A.1 kV=0.12 kw=6.4982 kVar=0.65 mode=7
New Generator.PV_162 phases=1 Bus1=SX2001312A.2 kV=0.12 kw=8.0395 kVar=0.8 mode=7
New Generator.PV_163 phases=1 Bus1=SX2001313A.1 kV=0.12 kw=9.9848 kVar=1 mode=7
New Generator.PV_164 phases=1 Bus1=SX2001313A.2 kV=0.12 kw=12.387 kVar=1.24 mode=7
New Generator.PV_165 phases=1 Bus1=SX2001314A.1 kV=0.12 kw=11.4951 kVar=1.15 mode=7
New Generator.PV_166 phases=1 Bus1=SX2001314A.2 kV=0.12 kw=9.9486 kVar=0.99 mode=7
New Generator.PV_167 phases=1 Bus1=SX2001315A.1 kV=0.12 kw=10.0359 kVar=1 mode=7
New Generator.PV_168 phases=1 Bus1=SX2001315A.2 kV=0.12 kw=9.8945 kVar=0.99 mode=7
New Generator.PV_169 phases=1 Bus1=SX2001400C.1 kV=0.12 kw=18.8111 kVar=1.88 mode=7
New Generator.PV_170 phases=1 Bus1=SX2001400C.2 kV=0.12 kw=21.7089 kVar=2.17 mode=7